20

C       1.28630756      -0.77573787      -0.00000000
C       2.47070405       0.18372642      -0.00000000
C       3.79013383      -0.60191494      -0.00000000
C       4.99312868       0.34819422      -0.00000000
C       6.30623936      -0.43099753      -0.00000000
N       0.00000000       0.00000000      -0.00000000
H       1.27610811      -1.40641630       0.89215764
H       1.27610811      -1.40641630      -0.89215764
H       2.41877024       0.82374106       0.88651503
H       2.41877024       0.82374106      -0.88651503
H       3.82571104      -1.24461252      -0.88535152
H       3.82571104      -1.24461252       0.88535152
H       4.94575858       0.99045146       0.88526603
H       4.94575858       0.99045146      -0.88526603
H       6.37663529      -1.06240433       0.88601442
H       7.14484734       0.26410989      -0.00000000
H       6.37663529      -1.06240433      -0.88601442
H      -0.04282656       0.58998902      -0.82749495
H      -0.04282656       0.58998902       0.82749495
H      -0.79342064      -0.63569277      -0.00000000
